*Heading
** Job name: shaft_1_timoshenko Model name: Model-1
** Generated by: Abaqus/CAE 2025
*Preprint, echo=NO, model=YES, history=NO, contact=NO
**
** PARTS
**
*Part, name=shaft_1
*End Part
**  
**
** ASSEMBLY
**
*Assembly, name=Assembly
**  
*Instance, name=shaft_1-1, part=shaft_1
        100.,           0.,           0.
*Node
      1,        -100.,           0.,           0.
      2,         -90.,           0.,           0.
      3,         -40.,           0.,           0.
      4,         -7.5,           0.,           0.
      5,           0.,           0.,           0.
      6,          7.5,           0.,           0.
      7,          83.,           0.,           0.
      8,          90.,           0.,           0.
      9,          97.,           0.,           0.
     10,         100.,           0.,           0.
*Element, type=B31
1, 1, 2
2, 2, 3
3, 3, 4
4, 4, 5
5, 5, 6
6, 6, 7
7, 7, 8
8, 8, 9
 9,  9, 10
*Nset, nset=_PickedSet2, internal, generate
  1,  10,   1
*Elset, elset=_PickedSet2, internal, generate
 1,  9,  1
** Section: Section-1  Profile: circular_d_20
*Beam Section, elset=_PickedSet2, material=AISI_1045, temperature=GRADIENTS, section=CIRC
10.
0.,0.,-1.
*End Instance
**  
*Nset, nset=_PickedSet16, internal, instance=shaft_1-1
 1,
*Nset, nset=_PickedSet36, internal, instance=shaft_1-1
 5,
*Nset, nset=_PickedSet37, internal, instance=shaft_1-1
 5,
*Nset, nset=_PickedSet38, internal, instance=shaft_1-1
 3,
*Nset, nset=_PickedSet39, internal, instance=shaft_1-1
 2,
*Nset, nset=_PickedSet40, internal, instance=shaft_1-1
 8,
*End Assembly
** 
** MATERIALS
** 
*Material, name=AISI_1045
*Elastic
207000., 0.3
** 
** BOUNDARY CONDITIONS
** 
** Name: brg_1_locating Type: Symmetry/Antisymmetry/Encastre
*Boundary
_PickedSet39, PINNED
** Name: brg_2_non_locating Type: Displacement/Rotation
*Boundary
_PickedSet40, 2, 2
_PickedSet40, 3, 3
** ----------------------------------------------------------------
** 
** STEP: Step-1
** 
*Step, name=Step-1, nlgeom=NO
*Static, direct
1., 1., 
** 
** LOADS
** 
** Name: T_in   Type: Moment
*Cload
_PickedSet16, 4, -65.86
** Name: T_out   Type: Moment
*Cload
_PickedSet36, 4, 65.86
** Name: g_driver   Type: Concentrated force
*Cload
_PickedSet37, 2, 1198.5
_PickedSet37, 3, 3292.86
** Name: radial_test_load   Type: Concentrated force
*Cload
_PickedSet38, 3, -500.
** 
** OUTPUT REQUESTS
** 
*Restart, write, frequency=0
** 
** FIELD OUTPUT: F-Output-1
** 
*Output, field, variable=PRESELECT
** 
** HISTORY OUTPUT: H-Output-1
** 
*Output, history, variable=PRESELECT
*End Step
