*Heading
** Job name: shaft_1_timoshenko Model name: Model-1
** Generated by: Abaqus/CAE 2025
*Preprint, echo=NO, model=YES, history=NO, contact=NO
**
** PARTS
**
*Part, name=shaft_1
*End Part
**  
**
** ASSEMBLY
**
*Assembly, name=Assembly
**  
*Instance, name=shaft_1-1, part=shaft_1
        100.,           0.,           0.
*Node
      1,        -100.,           0.,           0.
      2,         -90.,           0.,           0.
      3,         -7.5,           0.,           0.
      4,           0.,           0.,           0.
      5,          7.5,           0.,           0.
      6,          83.,           0.,           0.
      7,          90.,           0.,           0.
      8,          97.,           0.,           0.
      9,         100.,           0.,           0.
*Element, type=B31H
1, 1, 2
2, 2, 3
3, 3, 4
4, 4, 5
5, 5, 6
6, 6, 7
7, 7, 8
8, 8, 9
*Nset, nset=_PickedSet2, internal, generate
 1,  9,  1
*Elset, elset=_PickedSet2, internal, generate
 1,  8,  1
** Section: Section-1  Profile: circular_d_20
*Beam Section, elset=_PickedSet2, material=AISI_1045, temperature=GRADIENTS, section=CIRC
10.
0.,0.,-1.
*End Instance
**  
*Nset, nset=_PickedSet16, internal, instance=shaft_1-1
 1,
*Nset, nset=_PickedSet39, internal, instance=shaft_1-1
 2,
*Nset, nset=_PickedSet57, internal, instance=shaft_1-1
 4,
*Nset, nset=_PickedSet58, internal, instance=shaft_1-1
 4,
*Nset, nset=_PickedSet59, internal, instance=shaft_1-1
 7,
*Nset, nset=_PickedSet60, internal, instance=shaft_1-1
 7,
*End Assembly
** 
** MATERIALS
** 
*Material, name=AISI_1045
*Elastic
207000., 0.3
** 
** BOUNDARY CONDITIONS
** 
** Name: brg_1_locating Type: Symmetry/Antisymmetry/Encastre
*Boundary
_PickedSet39, PINNED
** Name: brg_2_non_locating Type: Displacement/Rotation
*Boundary
_PickedSet60, 2, 2
_PickedSet60, 3, 3
** ----------------------------------------------------------------
** 
** STEP: Step-1
** 
*Step, name=Step-1, nlgeom=NO
*Static, direct
1., 1., 
** 
** LOADS
** 
** Name: T_in   Type: Moment
*Cload
_PickedSet16, 4, -65.86
** Name: T_out   Type: Moment
*Cload
_PickedSet57, 4, 65.86
** Name: axial_test_load   Type: Concentrated force
*Cload
_PickedSet59, 1, 2000.
_PickedSet59, 3, 0.     
** Name: g_driver   Type: Concentrated force
*Cload
_PickedSet58, 2, 1198.5
_PickedSet58, 3, 3292.86
** 
** OUTPUT REQUESTS
** 
*Restart, write, frequency=0
** 
** FIELD OUTPUT: F-Output-1
** 
*Output, field, variable=PRESELECT
** 
** HISTORY OUTPUT: H-Output-1
** 
*Output, history, variable=PRESELECT
*End Step
